IEEE 13 Bus with PV/IEEE13Nodeckt_Curr_Seq.Txt

SYMMETRICAL COMPONENT CURRENTS BY CIRCUIT ELEMENT (first 3 phases)

Element                               Term      I1         I2         %I2/I1    I0         %I0/I1   %Normal %Emergency

"VSOURCE.SOURCE" ....................   1      14.726       1.7222    11.69  6.2395E-013     0.00      0.00     0.00
   -                                    2      14.726       1.7222    11.69  6.2395E-013     0.00      0.00     0.00
"TRANSFORMER.SUB" ...................   1      14.726       1.7222    11.69  5.3416E-014     0.00     59.50    43.63
   -                                    2       407.1       47.608    11.69      45.832    11.26      0.00     0.00
"TRANSFORMER.REG1" ..................   1      457.49            0     0.00           0     0.00     59.91    43.94
   -                                    2      425.57            0     0.00           0     0.00      0.00     0.00
"TRANSFORMER.REG2" ..................   1      316.79            0     0.00           0     0.00     41.49    30.42
   -                                    2      299.92            0     0.00           0     0.00      0.00     0.00
"TRANSFORMER.REG3" ..................   1      447.92            0     0.00           0     0.00     58.66    43.02
   -                                    2      416.67            0     0.00           0     0.00      0.00     0.00
"TRANSFORMER.XFM1" ..................   1      50.925       4.7399     9.31       4.765     9.36     79.08    57.99
   -                                    2      441.35       41.079     9.31      41.297     9.36      0.00     0.00
"LINE.650632" .......................   1      380.44       42.588    11.19      41.002    10.78    106.39    70.93
   -                                    2      380.44       42.588    11.19      41.002    10.78      0.00     0.00
"LINE.632671" .......................   1      282.17        75.09    26.61      58.794    20.84     91.38    60.92
   -                                    2      282.17        75.09    26.61      58.794    20.84      0.00     0.00
"LINE.671680" .......................   1  0.00058871   6.6128E-006     1.12  7.6276E-006     1.30      0.00     0.00
   -                                    2  4.1356E-012   2.5529E-012    61.73  2.6818E-012    64.85      0.00     0.00
"LINE.632633" .......................   1      50.925       4.7399     9.31       4.765     9.36     15.09    10.06
   -                                    2      50.925       4.7399     9.31       4.765     9.36      0.00     0.00
"LINE.632645" .......................   1      46.771            0     0.00           0     0.00     11.69     7.80
   -                                    2      46.772            0     0.00           0     0.00      0.00     0.00
"LINE.645646" .......................   1      46.772            0     0.00           0     0.00     11.69     7.80
   -                                    2      46.772            0     0.00           0     0.00      0.00     0.00
"LINE.671684" .......................   1      48.507            0     0.00           0     0.00     12.13     8.08
   -                                    2      48.507            0     0.00           0     0.00      0.00     0.00
"LINE.684611" .......................   1      55.634            0     0.00           0     0.00     13.91     9.27
   -                                    2      55.634            0     0.00           0     0.00      0.00     0.00
"LINE.684652" .......................   1      48.507            0     0.00           0     0.00     12.13     8.08
   -                                    2      48.525            0     0.00           0     0.00      0.00     0.00
"LINE.692675" .......................   1      90.555        32.92    36.35      48.464    53.52     38.97    25.98
   -                                    2      90.563       32.919    36.35      48.464    53.51      0.00     0.00
"LINE.671692" .......................   1      111.96        52.71    47.08      48.464    43.29     45.17    30.11
   -                                    2      111.96        52.71    47.08      48.464    43.29      0.00     0.00
"CAPACITOR.CAP1" ....................   1       27.97      0.34193     1.22      0.8234     2.94      0.00     0.00
   -                                    2       27.97      0.34193     1.22      0.8234     2.94      0.00     0.00
"CAPACITOR.CAP2" ....................   1      12.283            0     0.00           0     0.00      0.00     0.00
   -                                    2      12.283            0     0.00           0     0.00      0.00     0.00
"LOAD.671" ..........................   1      137.13     0.017257     0.01  1.3181E-014     0.00      0.00     0.00
"LOAD.634A" .........................   1      523.18            0     0.00           0     0.00      0.00     0.00
"LOAD.634B" .........................   1      396.64            0     0.00           0     0.00      0.00     0.00
"LOAD.634C" .........................   1      404.41            0     0.00           0     0.00      0.00     0.00
"LOAD.645" ..........................   1      63.857            0     0.00           0     0.00      0.00     0.00
"LOAD.646" ..........................   1      46.772            0     0.00           0     0.00      0.00     0.00
"LOAD.692" ..........................   1      41.012            0     0.00           0     0.00      0.00     0.00
"LOAD.675A" .........................   1      163.84            0     0.00           0     0.00      0.00     0.00
"LOAD.675B" .........................   1      27.061            0     0.00           0     0.00      0.00     0.00
"LOAD.675C" .........................   1      113.98            0     0.00           0     0.00      0.00     0.00
"LOAD.611" ..........................   1      59.746            0     0.00           0     0.00      0.00     0.00
"LOAD.652" ..........................   1      48.526            0     0.00           0     0.00      0.00     0.00
