IEEE 13 Bus with PV/IEEE13Nodeckt_Losses.Txt

LOSSES REPORT

Power Delivery Element Loss Report

Element                  kW Losses    % of Power   kvar Losses

"Transformer.SUB"                      35.32332,     1.38     1.41704
"Transformer.REG1"                      2.89443,     0.31     0.363553
"Transformer.REG2"                      1.38789,     0.20     0.175215
"Transformer.REG3"                      2.77470,     0.30     0.348587
"Transformer.XFM1"                      3.01369,     0.99     5.47996
"Line.650632"                          32.33732,     1.29     103.584
"Line.632671"                          20.69652,     1.10     65.2661
"Line.671680"                           0.00000,      0.0     -0.00428509
"Line.632633"                           0.44731,     0.15     0.571536
"Line.632645"                           1.48892,     0.49     1.29335
"Line.645646"                           0.27842,     0.16     0.221162
"Line.671684"                           0.36115,     0.16     0.307301
"Line.684611"                           0.23375,     0.18     0.236634
"Line.684652"                           0.47878,     0.50     0.105839
"Line.692675"                           2.23677,     0.35     1.21597
"Line.671692"                           0.00704,     0.00     0.00703716
"Capacitor.CAP1"                        0.00000,      0.0     -203.285
"Capacitor.CAP2"                        0.00000,      0.0     -28.9687

LINE LOSSES=                        58.6 kW
TRANSFORMER LOSSES=                 45.4 kW

TOTAL LOSSES=                      104.0 kW

TOTAL LOAD POWER =                2449.5 kW
Percent Losses for Circuit =      4.24 %
