IEEE 13 Bus with PV/IEEE13Nodeckt_Power_seq_kVA.txt

SYMMETRICAL COMPONENT POWERS BY CIRCUIT ELEMENT (first 3 phases)                                     Excess Power

Element                               Term    P1(kW)   Q1(kvar)       P2         Q2      P0      Q0       P_Norm      Q_Norm     P_Emerg    Q_Emerg

"Vsource.SOURCE"                       1    -2553.3    -1437.8        0.0        0.1     0.0     0.0
"Vsource.SOURCE"                       2        0.0        0.0        0.0        0.0     0.0     0.0
"Transformer.SUB"                      1     2553.3     1437.8       -0.0       -0.1     0.0    -0.0        0.0        0.0        0.0        0.0
"Transformer.SUB"                      2    -2518.9    -1436.4        0.5        0.1     0.4     0.0
"Transformer.REG1"                     1        0.0        0.0        0.0        0.0     0.0     0.0        0.0        0.0        0.0        0.0
"Transformer.REG1"                     2        0.0        0.0        0.0        0.0     0.0     0.0
"Transformer.REG2"                     1        0.0        0.0        0.0        0.0     0.0     0.0        0.0        0.0        0.0        0.0
"Transformer.REG2"                     2        0.0        0.0        0.0        0.0     0.0     0.0
"Transformer.REG3"                     1        0.0        0.0        0.0        0.0     0.0     0.0        0.0        0.0        0.0        0.0
"Transformer.REG3"                     2        0.0        0.0        0.0        0.0     0.0     0.0
"Transformer.XFM1"                     1      303.0      223.2       -0.1        0.0     0.1    -0.3        0.0        0.0        0.0        0.0
"Transformer.XFM1"                     2     -300.1     -217.8        0.1       -0.0    -0.0     0.4
"Line.650632"                          1     2509.3     1433.0        0.9        1.1     0.7     1.3      150.9       86.2        0.0        0.0
"Line.650632"                          2    -2480.5    -1334.6        0.7        0.5     1.2     2.3
"Line.632671"                          1     1876.9      917.6       -1.4       -0.5    -2.0    -3.1        0.0        0.0        0.0        0.0
"Line.632671"                          2    -1862.3     -863.7        4.2        4.4     5.4    10.5
"Line.671680"                          1        0.0       -0.0       -0.0       -0.0     0.0    -0.0        0.0        0.0        0.0        0.0
"Line.671680"                          2       -0.0        0.0        0.0        0.0    -0.0     0.0
"Line.632633"                          1      303.5      223.8       -0.1        0.0     0.1    -0.3        0.0        0.0        0.0        0.0
"Line.632633"                          2     -303.0     -223.2        0.1       -0.0    -0.1     0.3
"Line.632645"                          1        0.0        0.0        0.0        0.0     0.0     0.0        0.0        0.0        0.0        0.0
"Line.632645"                          2        0.0        0.0        0.0        0.0     0.0     0.0
"Line.645646"                          1        0.0        0.0        0.0        0.0     0.0     0.0        0.0        0.0        0.0        0.0
"Line.645646"                          2        0.0        0.0        0.0        0.0     0.0     0.0
"Line.671684"                          1        0.0        0.0        0.0        0.0     0.0     0.0        0.0        0.0        0.0        0.0
"Line.671684"                          2        0.0        0.0        0.0        0.0     0.0     0.0
"Line.684611"                          1        0.0        0.0        0.0        0.0     0.0     0.0        0.0        0.0        0.0        0.0
"Line.684611"                          2        0.0        0.0        0.0        0.0     0.0     0.0
"Line.684652"                          1        0.0        0.0        0.0        0.0     0.0     0.0        0.0        0.0        0.0        0.0
"Line.684652"                          2        0.0        0.0        0.0        0.0     0.0     0.0
"Line.692675"                          1      640.4      154.6       -2.4       -1.1    -3.5    -9.0        0.0        0.0        0.0        0.0
"Line.692675"                          2     -639.3     -153.8        2.6        1.3     4.5     9.3
"Line.671692"                          1      768.6      269.6       -3.2       -2.9    -3.5    -9.0        0.0        0.0        0.0        0.0
"Line.671692"                          2     -768.6     -269.6        3.2        2.9     3.5     9.0
"Capacitor.CAP1"                       1       -0.0     -203.1        0.0       -0.0    -0.0    -0.2        0.0        0.0        0.0        0.0
"Capacitor.CAP1"                       2        0.0        0.0        0.0        0.0     0.0     0.0
"Capacitor.CAP2"                       1        0.0        0.0        0.0        0.0     0.0     0.0        0.0        0.0        0.0        0.0
"Capacitor.CAP2"                       2        0.0        0.0        0.0        0.0     0.0     0.0
"Load.671"                             1      866.2      495.0        0.0       -0.0     0.0    -0.0
"Load.634A"                            1        0.0        0.0        0.0        0.0     0.0     0.0
"Load.634B"                            1        0.0        0.0        0.0        0.0     0.0     0.0
"Load.634C"                            1        0.0        0.0        0.0        0.0     0.0     0.0
"Load.645"                             1        0.0        0.0        0.0        0.0     0.0     0.0
"Load.646"                             1        0.0        0.0        0.0        0.0     0.0     0.0
"Load.692"                             1        0.0        0.0        0.0        0.0     0.0     0.0
"Load.675A"                            1        0.0        0.0        0.0        0.0     0.0     0.0
"Load.675B"                            1        0.0        0.0        0.0        0.0     0.0     0.0
"Load.675C"                            1        0.0        0.0        0.0        0.0     0.0     0.0
"Load.611"                             1        0.0        0.0        0.0        0.0     0.0     0.0
"Load.652"                             1        0.0        0.0        0.0        0.0     0.0     0.0
"PVSystem.PV675"                       1        0.0        0.0        0.0        0.0     0.0     0.0

Total Circuit Losses =  104.0 +j  180.6
